   12
FINAL HEAT OF FORMATION =     0.000000
Au    -0.241928     0.518738     0.137832
Au    -0.036142     0.047366     2.770352
Au     0.292383    -2.005870     1.006980
Au    -2.221522    -0.817062     1.376298
Au    -1.382327    -1.496901    -1.203017
Au     1.326443    -1.157191    -1.337001
Au     2.172645    -0.081668     1.059130
Au     0.863079     2.425095     1.575333
Au    -1.904761     1.987174     1.615499
Au    -2.685197     0.976051    -0.779542
Au    -0.539303     0.713672    -2.479917
Au     1.801082     1.635050    -1.116557

